data/D002900/Lines.dss
New Line.line0 Units=km Length=0.001 bus1=n034871.1.2.3 bus2=n034872.1.2.3 switch=n enabled=y phases=3 Linecode=unknown_linecode_3
New Line.line1 Units=km Length=0.001 bus1=n034872.1.2.3 bus2=n034873.1.2.3 switch=n enabled=y phases=3 Linecode=19/3.75_AAC_-_PLUTO_3
New Line.line10 Units=km Length=0.02432 bus1=n034881.1.2.3 bus2=n034882.1.2.3 switch=n enabled=y phases=3 Linecode=38_HD_CU_3
New Line.line11 Units=km Length=0.04958 bus1=n034882.1.2.3 bus2=n034883.1.2.3 switch=n enabled=y phases=3 Linecode=7/4.5_AAC_-_MERCURY_3
New Line.line12 Units=km Length=0.0253 bus1=n034883.1.2.3 bus2=n034884.1.2.3 switch=n enabled=y phases=3 Linecode=7/4.5_AAC_-_MERCURY_3
New Line.line13 Units=km Length=0.001 bus1=n034884.1.2.3 bus2=n572970.1.2.3 switch=n enabled=y phases=3 Linecode=7/4.5_AAC_-_MERCURY_3
New Line.line14 Units=km Length=0.04446 bus1=n034879.1.2.3 bus2=n034885.1.2.3 switch=n enabled=y phases=3 Linecode=66_HDCU_(19/2.11)_3
New Line.line15 Units=km Length=0.03542 bus1=n034885.1.2.3 bus2=n034886.1.2.3 switch=n enabled=y phases=3 Linecode=66_HDCU_(19/2.11)_3
New Line.line16 Units=km Length=0.035570000000000004 bus1=n034886.1.2.3 bus2=n034887.1.2.3 switch=n enabled=y phases=3 Linecode=66_HDCU_(19/2.11)_3
New Line.line17 Units=km Length=0.04857 bus1=n034887.1.2.3 bus2=n034888.1.2.3 switch=n enabled=y phases=3 Linecode=66_HDCU_(19/2.11)_3
New Line.line18 Units=km Length=0.001 bus1=n034888.1.2.3 bus2=n034889.1.2.3 switch=n enabled=y phases=3 Linecode=66_HDCU_(19/2.11)_3
New Line.line19 Units=km Length=0.04886 bus1=n034889.1.2.3 bus2=n034890.1.2.3 switch=n enabled=y phases=3 Linecode=7/4.5_AAC_-_MERCURY_3
New Line.line2 Units=km Length=0.03046 bus1=n034873.1.2.3 bus2=n034874.1.2.3 switch=n enabled=y phases=3 Linecode=19/3.75_AAC_-_PLUTO_3
New Line.line20 Units=km Length=0.04947 bus1=n034890.1.2.3 bus2=n034891.1.2.3 switch=n enabled=y phases=3 Linecode=7/4.5_AAC_-_MERCURY_3
New Line.line21 Units=km Length=0.03713 bus1=n034891.1.2.3 bus2=n034892.1.2.3 switch=n enabled=y phases=3 Linecode=7/4.5_AAC_-_MERCURY_3
New Line.line22 Units=km Length=0.00204 bus1=n034892.1.2.3 bus2=n572971.1.2.3 switch=n enabled=y phases=3 Linecode=7/4.5_AAC_-_MERCURY_3
New Line.line23 Units=km Length=0.01737 bus1=n034877.1.2.3 bus2=n572972.1.2.3 switch=n enabled=y phases=3 Linecode=25AL_ABC_3
New Line.line24 Units=km Length=0.00172 bus1=n034879.1.2.3 bus2=n572973.1.2.3 switch=n enabled=y phases=3 Linecode=7/4.5_AAC_-_MERCURY_3
New Line.line25 Units=km Length=0.01442 bus1=n034890.1.2.3 bus2=n572974.1.2.3 switch=n enabled=y phases=3 Linecode=7/4.5_AAC_-_MERCURY_3
New Line.line26 Units=km Length=0.017920000000000002 bus1=n034876.1.2.3 bus2=n034893.1.2.3 switch=n enabled=y phases=3 Linecode=25AL_ABC_3
New Line.line27 Units=km Length=0.001 bus1=n034893.1.2.3 bus2=n572975.1.2.3 switch=n enabled=y phases=3 Linecode=25AL_ABC_3
New Line.line28 Units=km Length=0.00161 bus1=n034889.1.2.3 bus2=n572976.1.2.3 switch=n enabled=y phases=3 Linecode=66_HDCU_(19/2.11)_3
New Line.line29 Units=km Length=0.024390000000000002 bus1=n034875.1.2.3 bus2=n034894.1.2.3 switch=n enabled=y phases=3 Linecode=25AL_ABC_3
New Line.line3 Units=km Length=0.03799 bus1=n034874.1.2.3 bus2=n034875.1.2.3 switch=n enabled=y phases=3 Linecode=19/3.75_AAC_-_PLUTO_3
New Line.line30 Units=km Length=0.001 bus1=n034894.1.2.3 bus2=n572977.1.2.3 switch=n enabled=y phases=3 Linecode=25AL_ABC_3
New Line.line31 Units=km Length=0.029079999999999998 bus1=n034882.1.2.3 bus2=n034895.1.2.3 switch=n enabled=y phases=3 Linecode=7/4.5_AAC_-_MERCURY_3
New Line.line32 Units=km Length=0.049420000000000006 bus1=n034895.1.2.3 bus2=n034896.1.2.3 switch=n enabled=y phases=3 Linecode=7/4.5_AAC_-_MERCURY_3
New Line.line33 Units=km Length=0.04568 bus1=n034896.1.2.3 bus2=n034897.1.2.3 switch=n enabled=y phases=3 Linecode=7/4.5_AAC_-_MERCURY_3
New Line.line34 Units=km Length=0.03056 bus1=n034897.1.2.3 bus2=n034898.1.2.3 switch=n enabled=y phases=3 Linecode=7/4.5_AAC_-_MERCURY_3
New Line.line35 Units=km Length=0.03581 bus1=n034898.1.2.3 bus2=n034899.1.2.3 switch=n enabled=y phases=3 Linecode=7/4.5_AAC_-_MERCURY_3
New Line.line36 Units=km Length=0.001 bus1=n034899.1.2.3 bus2=n572978.1.2.3 switch=n enabled=y phases=3 Linecode=7/4.5_AAC_-_MERCURY_3
New Line.line37 Units=km Length=0.016030000000000003 bus1=n034886.1.2.3 bus2=n034900.1.2.3 switch=n enabled=y phases=3 Linecode=25AL_ABC_3
New Line.line38 Units=km Length=0.001 bus1=n034900.1.2.3 bus2=n572979.1.2.3 switch=n enabled=y phases=3 Linecode=25AL_ABC_3
New Line.line39 Units=km Length=0.001 bus1=n034886.1.2.3 bus2=n572980.1.2.3 switch=n enabled=y phases=3 Linecode=66_HDCU_(19/2.11)_3
New Line.line4 Units=km Length=0.04145 bus1=n034875.1.2.3 bus2=n034876.1.2.3 switch=n enabled=y phases=3 Linecode=19/3.75_AAC_-_PLUTO_3
New Line.line5 Units=km Length=0.0485 bus1=n034876.1.2.3 bus2=n034877.1.2.3 switch=n enabled=y phases=3 Linecode=19/3.75_AAC_-_PLUTO_3
New Line.line6 Units=km Length=0.04323 bus1=n034877.1.2.3 bus2=n034878.1.2.3 switch=n enabled=y phases=3 Linecode=19/3.75_AAC_-_PLUTO_3
New Line.line7 Units=km Length=0.001 bus1=n034878.1.2.3 bus2=n034879.1.2.3 switch=n enabled=y phases=3 Linecode=19/3.75_AAC_-_PLUTO_3
New Line.line8 Units=km Length=0.04022 bus1=n034879.1.2.3 bus2=n034880.1.2.3 switch=n enabled=y phases=3 Linecode=38_HD_CU_3
New Line.line9 Units=km Length=0.04435 bus1=n034880.1.2.3 bus2=n034881.1.2.3 switch=n enabled=y phases=3 Linecode=38_HD_CU_3
